                                  MODFLOW-NWT-SWR1 
      U.S. GEOLOGICAL SURVEY MODULAR FINITE-DIFFERENCE GROUNDWATER-FLOW MODEL
                             VERSION 1.1.4 4/01/2018
                    BASED ON MODFLOW-2005 VERSION 1.12.00 02/03/2017

 LIST FILE: Model1.lst
                         UNIT   11

 OPENING Model1.cbc
 FILE TYPE:DATA(BINARY)   UNIT    9   STATUS:REPLACE
 FORMAT:BINARY                 ACCESS:SEQUENTIAL          

 OPENING Model1.dis
 FILE TYPE:DIS   UNIT   12   STATUS:OLD    
 FORMAT:FORMATTED              ACCESS:SEQUENTIAL          

 OPENING Model1.bas
 FILE TYPE:BAS6   UNIT   13   STATUS:OLD    
 FORMAT:FORMATTED              ACCESS:SEQUENTIAL          

 OPENING Model1.oc
 FILE TYPE:OC   UNIT   39   STATUS:OLD    
 FORMAT:FORMATTED              ACCESS:SEQUENTIAL          

 OPENING Model1.bhd
 FILE TYPE:DATA(BINARY)   UNIT   37   STATUS:REPLACE
 FORMAT:BINARY                 ACCESS:SEQUENTIAL          

 OPENING Model1.fdn
 FILE TYPE:DATA   UNIT   38   STATUS:REPLACE
 FORMAT:FORMATTED              ACCESS:SEQUENTIAL          

 OPENING Model1.nwt
 FILE TYPE:NWT   UNIT  133   STATUS:OLD    
 FORMAT:FORMATTED              ACCESS:SEQUENTIAL          

 OPENING Model1.upw
 FILE TYPE:UPW   UNIT  134   STATUS:OLD    
 FORMAT:FORMATTED              ACCESS:SEQUENTIAL          

 OPENING Model1.lmt
 FILE TYPE:LMT6   UNIT  135   STATUS:OLD    
 FORMAT:FORMATTED              ACCESS:SEQUENTIAL          

 OPENING Model1.ghb
 FILE TYPE:GHB   UNIT   19   STATUS:OLD    
 FORMAT:FORMATTED              ACCESS:SEQUENTIAL          

 OPENING Model1.riv
 FILE TYPE:RIV   UNIT   21   STATUS:OLD    
 FORMAT:FORMATTED              ACCESS:SEQUENTIAL          

 OPENING Model1.rch
 FILE TYPE:RCH   UNIT   24   STATUS:OLD    
 FORMAT:FORMATTED              ACCESS:SEQUENTIAL          

 OPENING Model1.ob_hob
 FILE TYPE:HOB   UNIT   41   STATUS:OLD    
 FORMAT:FORMATTED              ACCESS:SEQUENTIAL          

 OPENING Model1.hob_out
 FILE TYPE:DATA   UNIT   42   STATUS:REPLACE
 FORMAT:FORMATTED              ACCESS:SEQUENTIAL          

 BAS -- BASIC PACKAGE, VERSION 1.1.4, 4/01/2018 INPUT READ FROM UNIT   13
 
 MODFLOW was compiled using mixed precision
 Precision of REAL variables:           6
 Precision of DOUBLE PRECISION variables:          15

 DISCRETIZATION INPUT DATA READ FROM UNIT   12
 # Discretization File created on 29/01/2021 by ModelMuse version 4.3.0.0.
 # Upper left corner: (232195, 8918800)
 # Lower left corner: (232195, 8917310)
 # Upper right corner: (234595, 8918800)
 # Lower right corner: (234595, 8917310)
 # Grid angle (in degrees counterclockwise): 0
    4 LAYERS        89 ROWS       186 COLUMNS
    4 STRESS PERIOD(S) IN SIMULATION
 MODEL TIME UNIT IS DAYS
 MODEL LENGTH UNIT IS METERS
  Confining bed flag for each layer:
   0   0   0   0



                               DELR
 READING ON UNIT   12 WITH FORMAT: (FREE)              
   25.000       25.000       25.000       25.000       25.000    
   25.000       25.000       25.000       25.000       25.000    
   25.000       25.000       25.000       22.292       18.577    
   15.481       12.900       10.750       10.000       10.000    
   10.000       10.000       10.000       10.000       10.000    
   10.000       10.000       10.000       10.000       10.000    
   10.000       10.000       10.000       10.000       10.000    
   10.000       10.000       10.000       10.000       10.000    
   10.000       10.000       10.000       10.000       10.000    
   10.000       10.000       10.000       10.000       10.000    
   10.000       10.000       10.000       10.000       10.000    
   10.000       10.000       10.000       10.000       10.000    
   10.000       10.000       10.000       10.000       10.000    
   10.000       10.000       10.000       10.000       10.000    
   10.000       10.000       10.000       10.000       10.000    
   10.000       10.000       10.000       10.000       10.000    
   10.000       10.000       10.000       10.000       10.000    
   10.000       10.000       10.000       10.000       10.000    
   10.000       10.000       10.000       10.000       10.000    
   10.000       10.000       10.000       10.000       10.000    
   10.000       10.000       10.000       10.000       10.000    
   10.000       10.000       10.000       10.000       10.000    
   10.000       10.000       10.000       10.000       10.000    
   10.000       10.000       10.000       10.000       10.000    
   10.000       10.000       10.000       10.000       10.000    
   10.000       10.000       10.000       10.000       10.000    
   10.000       10.000       10.000       10.000       10.000    
   10.000       10.000       10.000       10.000       10.000    
   10.000       10.000       10.000       10.000       10.000    
   10.000       10.000       10.000       10.000       10.000    
   10.000       10.000       10.000       10.000       10.000    
   10.000       10.000       10.000       10.000       10.000    
   10.000       10.000       10.750       12.900       15.481    
   18.577       22.292       25.000       25.000       25.000    
   25.000       25.000       25.000       25.000       25.000    
   25.000       25.000       25.000       25.000       25.000    
   25.000       25.000       25.000       25.000       25.000    
   25.000    



                               DELC
 READING ON UNIT   12 WITH FORMAT: (FREE)              
   25.000       25.000       25.000       25.000       25.000    
   25.000       25.000       25.000       25.000       25.000    
   25.000       25.000       25.000       25.000       25.000    
   25.000       25.000       25.000       25.000       25.000    
   25.000       25.000       25.000       25.000       22.292    
   18.577       15.481       12.900       10.750       10.000    
   10.000       10.000       10.000       10.000       10.000    
   10.000       10.000       10.000       10.000       10.000    
   10.000       10.000       10.000       10.000       10.000    
   10.000       10.000       10.000       10.000       10.000    
   10.000       10.000       10.000       10.000       10.000    
   10.000       10.000       10.000       10.000       10.000    
   10.000       10.000       10.000       10.000       10.000    
   10.000       10.000       10.000       10.000       10.000    
   10.000       10.000       10.750       12.900       15.481    
   18.577       22.292       25.000       25.000       25.000    
   25.000       25.000       25.000       25.000       25.000    
   25.000       25.000       25.000       25.000    



           TOP ELEVATION OF LAYER 1
 READING ON UNIT   12 WITH FORMAT: (FREE)              

            1           2           3           4           5           6           7           8           9          10
           11          12          13          14          15          16          17          18          19          20
           21          22          23          24          25          26          27          28          29          30
           31          32          33          34          35          36          37          38          39          40
           41          42          43          44          45          46          47          48          49          50
           51          52          53          54          55          56          57          58          59          60
           61          62          63          64          65          66          67          68          69          70
           71          72          73          74          75          76          77          78          79          80
           81          82          83          84          85          86          87          88          89          90
           91          92          93          94          95          96          97          98          99         100
          101         102         103         104         105         106         107         108         109         110
          111         112         113         114         115         116         117         118         119         120
          121         122         123         124         125         126         127         128         129         130
          131         132         133         134         135         136         137         138         139         140
          141         142         143         144         145         146         147         148         149         150
          151         152         153         154         155         156         157         158         159         160
          161         162         163         164         165         166         167         168         169         170
          171         172         173         174         175         176         177         178         179         180
          181         182         183         184         185         186
 ........................................................................................................................
   1    3478.       3484.       3487.       3485.       3485.       3480.       3484.       3483.       3483.       3483.    
        3479.       3477.       3479.       3485.       3492.       3492.       3496.       3496.       3496.       3501.    
        3501.       3501.       3501.       3502.       3502.       3502.       3513.       3513.       3513.       3521.    
        3521.       3521.       3531.       3531.       3531.       3528.       3528.       3528.       3529.       3529.    
        3529.       3531.       3531.       3531.       3530.       3530.       3530.       3530.       3530.       3530.    
        3529.       3529.       3529.       3530.       3530.       3530.       3531.       3531.       3531.       3532.    
        3532.       3532.       3532.       3532.       3532.       3534.       3534.       3534.       3535.       3535.    
        3535.       3535.       3535.       3535.       3535.       3535.       3535.       3535.       3538.       3538.    
        3538.       3538.       3538.       3538.       3540.       3540.       3540.       3539.       3539.       3539.    
        3538.       3538.       3538.       3541.       3541.       3541.       3545.       3545.       3545.       3552.    
        3552.       3552.       3556.       3556.       3556.       3562.       3562.       3562.       3569.       3569.    
        3569.       3575.       3575.       3575.       3583.       3583.       3583.       3589.       3589.       3589.    
        3591.       3591.       3591.       3592.       3592.       3592.       3592.       3592.       3592.       3592.    
        3592.       3592.       3592.       3590.       3590.       3590.       3591.       3591.       3591.       3595.    
        3595.       3595.       3595.       3595.       3595.       3597.       3597.       3597.       3598.       3598.    
        3598.       3598.       3598.       3598.       3600.       3600.       3600.       3597.       3597.       3597.    
        3595.       3595.       3595.       3595.       3595.       3596.       3596.       3596.       3597.       3598.    
        3598.       3598.       3600.       3603.       3605.       3607.       3607.       3608.       3609.       3611.    
        3612.       3610.       3610.       3609.       3613.       3615.    
   2    3480.       3480.       3486.       3489.       3489.       3483.       3481.       3480.       3481.       3481.    
        3478.       3478.       3482.       3489.       3496.       3496.       3496.       3496.       3496.       3499.    
        3499.       3499.       3499.       3502.       3502.       3502.       3509.       3509.       3509.       3517.    
        3517.       3517.       3525.       3525.       3525.       3528.       3528.       3528.       3530.       3530.    
        3530.       3530.       3530.       3530.       3529.       3529.       3529.       3529.       3529.       3529.    
        3528.       3528.       3528.       3530.       3530.       3530.       3530.       3530.       3530.       3531.    
        3531.       3531.       3531.       3531.       3531.       3533.       3533.       3533.       3533.       3533.    
        3533.       3534.       3534.       3534.       3534.       3536.       3536.       3536.       3537.       3537.    
        3537.       3538.       3538.       3538.       3538.       3538.       3538.       3538.       3538.       3538.    
        3537.       3537.       3537.       3540.       3540.       3540.       3544.       3544.       3544.       3545.    
        3545.       3545.       3548.       3548.       3548.       3554.       3554.       3554.       3563.       3563.    
        3563.       3575.       3575.       3575.       3585.       3585.       3585.       3589.       3589.       3589.    
        3590.       3590.       3590.       3588.       3588.       3588.       3588.       3588.       3588.       3591.    
        3591.       3591.       3591.       3591.       3591.       3591.       3594.       3594.       3594.       3596.    
        3596.       3596.       3597.       3597.       3597.       3597.       3597.       3597.       3597.       3597.    
        3597.       3597.       3597.       3597.       3598.       3598.       3598.       3596.       3596.       3596.    
        3595.       3595.       3595.       3595.       3595.       3598.       3598.       3599.       3598.       3599.    
        3599.       3599.       3601.       3602.       3603.       3603.       3603.       3605.       3605.       3605.    
        3608.       3612.       3612.       3611.       3615.       3617.    
   3    3480.       3477.       3485.       3484.       3484.       3480.       3480.       3480.       3478.       3478.    
        3478.       3481.       3485.       3492.       3497.       3497.       3497.       3497.       3497.       3497.    
        3497.       3497.       3497.       3500.       3500.       3500.       3505.       3505.       3505.       3510.    
        3510.       3510.       3517.       3517.       3517.       3524.       3524.       3524.       3528.       3528.    
        3528.       3529.       3529.       3529.       3531.       3531.       3531.       3531.       3531.       3531.    
        3528.       3528.       3528.       3528.       3528.       3528.       3528.       3528.       3528.       3529.    
        3529.       3529.       3531.       3531.       3531.       3533.       3533.       3533.       3533.       3533.    
        3533.       3534.       3534.       3534.       3534.       3535.       3535.       3535.       3535.       3535.    
        3535.       3537.       3537.       3537.       3538.       3538.       3538.       3535.       3535.       3535.    
        3534.       3534.       3534.       3538.       3538.       3538.       3542.       3542.       3542.       3541.    
        3541.       3541.       3541.       3541.       3541.       3545.       3545.       3545.       3553.       3553.    
        3553.       3565.       3565.       3565.       3578.       3578.       3578.       3586.       3586.       3586.    
        3587.       3587.       3587.       3585.       3585.       3585.       3585.       3585.       3585.       3588.    
        3588.       3588.       3588.       3590.       3590.       3590.       3591.       3591.       3591.       3592.    
        3592.       3592.       3593.       3593.       3593.       3594.       3594.       3594.       3595.       3595.    
        3595.       3597.       3597.       3597.       3596.       3596.       3596.       3595.       3595.       3595.    
        3596.       3596.       3596.       3596.       3596.       3597.       3597.       3597.       3596.       3596.    
        3597.       3597.       3597.       3598.       3600.       3603.       3603.       3606.       3607.       3608.    
        3612.       3614.       3614.       3613.       3617.       3617.    
   4    3480.       3477.       3483.       3482.       3482.       3480.       3480.       3480.       3480.       3480.    
        3480.       3482.       3484.       3488.       3495.       3495.       3496.       3496.       3496.       3497.    
        3497.       3497.       3497.       3501.       3501.       3501.       3506.       3506.       3506.       3507.    
        3507.       3507.       3509.       3509.       3509.       3517.       3517.       3517.       3524.       3524.    
        3524.       3530.       3530.       3530.       3531.       3531.       3531.       3531.       3531.       3531.    
        3531.       3531.       3531.       3531.       3531.       3531.       3531.       3531.       3531.       3531.    
        3531.       3531.       3532.       3532.       3532.       3533.       3533.       3533.       3535.       3535.    
        3535.       3535.       3535.       3535.       3535.       3534.       3534.       3534.       3535.       3535.    
        3535.       3537.       3537.       3537.       3536.       3536.       3536.       3535.       3535.       3535.    
        3534.       3534.       3534.       3538.       3538.       3538.       3543.       3543.       3543.       3543.    
        3543.       3543.       3541.       3541.       3541.       3542.       3542.       3542.       3546.       3546.    
        3546.       3551.       3551.       3551.       3557.       3557.       3557.       3567.       3567.       3567.    
        3576.       3576.       3576.       3582.       3582.       3582.       3585.       3585.       3585.       3587.    
        3587.       3587.       3587.       3587.       3587.       3587.       3587.       3587.       3587.       3589.    
        3589.       3589.       3591.       3591.       3591.       3592.       3592.       3592.       3595.       3595.    
        3595.       3599.       3599.       3599.       3598.       3598.       3598.       3596.       3596.       3596.    
        3597.       3597.       3597.       3598.       3598.       3598.       3598.       3596.       3595.       3596.    
        3596.       3596.       3598.       3598.       3599.       3600.       3600.       3601.       3602.       3604.    
        3607.       3609.       3609.       3611.       3613.       3614.    
   5    3480.       3477.       3483.       3482.       3482.       3480.       3480.       3480.       3480.       3480.    
        3480.       3482.       3484.       3488.       3495.       3495.       3496.       3496.       3496.       3497.    
        3497.       3497.       3497.       3501.       3501.       3501.       3506.       3506.       3506.       3507.    
        3507.       3507.       3509.       3509.       3509.       3517.       3517.       3517.       3524.       3524.    
        3524.       3530.       3530.       3530.       3531.       3531.       3531.       3531.       3531.       3531.    
        3531.       3531.       3531.       3531.       3531.       3531.       3531.       3531.       3531.       3531.    
        3531.       3531.       3532.       3532.       3532.       3533.       3533.       3533.       3535.       3535.    
        3535.       3535.       3535.       3535.       3535.       3534.       3534.       3534.       3535.       3535.    
        3535.       3537.       3537.       3537.       3536.       3536.       3536.       3535.       3535.       3535.    
        3534.       3534.       3534.       3538.       3538.       3538.       3543.       3543.       3543.       3543.    
        3543.       3543.       3541.       3541.       3541.       3542.       3542.       3542.       3546.       3546.    
        3546.       3551.       3551.       3551.       3557.       3557.       3557.       3567.       3567.       3567.    
        3576.       3576.       3576.       3582.       3582.       3582.       3585.       3585.       3585.       3587.    
        3587.       3587.       3587.       3587.       3587.       3587.       3587.       3587.       3587.       3589.    
        3589.       3589.       3591.       3591.       3591.       3592.       3592.       3592.       3595.       3595.    
        3595.       3599.       3599.       3599.       3598.       3598.       3598.       3596.       3596.       3596.    
        3597.       3597.       3597.       3598.       3598.       3598.       3598.       3596.       3595.       3596.    
        3596.       3596.       3598.       3598.       3599.       3600.       3600.       3601.       3602.       3604.    
        3607.       3609.       3609.       3611.       3613.       3614.    
   6    3483.       3481.       3482.       3483.       3483.       3481.       3481.       3484.       3475.       3475.    
        3479.       3483.       3486.       3489.       3493.       3493.       3497.       3497.       3497.       3498.    
        3498.       3498.       3498.       3503.       3503.       3503.       3507.       3507.       3507.       3506.    
        3506.       3506.       3505.       3505.       3505.       3509.       3509.       3509.       3517.       3517.    
        3517.       3526.       3526.       3526.       3530.       3530.       3530.       3531.       3531.       3531.    
        3530.       3530.       3530.       3530.       3530.       3530.       3532.       3532.       3532.       3532.    
        3532.       3532.       3531.       3531.       3531.       3534.       3534.       3534.       3535.       3535.    
        3535.       3534.       3534.       3534.       3534.       3534.       3534.       3534.       3536.       3536.    
        3536.       3537.       3537.       3537.       3533.       3533.       3533.       3532.       3532.       3532.    
        3534.       3534.       3534.       3539.       3539.       3539.       3543.       3543.       3543.       3545.    
        3545.       3545.       3545.       3545.       3545.       3543.       3543.       3543.       3545.       3545.    
        3545.       3548.       3548.       3548.       3548.       3548.       3548.       3551.       3551.       3551.    
        3556.       3556.       3556.       3561.       3561.       3561.       3568.       3568.       3568.       3575.    
        3575.       3575.       3575.       3580.       3580.       3580.       3584.       3584.       3584.       3589.    
        3589.       3589.       3592.       3592.       3592.       3592.       3592.       3592.       3594.       3594.    
        3594.       3601.       3601.       3601.       3599.       3599.       3599.       3598.       3598.       3598.    
        3596.       3596.       3596.       3597.       3597.       3597.       3597.       3596.       3591.       3589.    
        3589.       3589.       3589.       3590.       3593.       3594.       3594.       3593.       3590.       3589.    
        3591.       3592.       3592.       3594.       3600.       3604.    
   7    3481.       3480.       3478.       3483.       3483.       3481.       3483.       3482.       3483.       3483.    
        3482.       3485.       3485.       3490.       3496.       3496.       3498.       3498.       3498.       3499.    
        3499.       3499.       3499.       3502.       3502.       3502.       3507.       3507.       3507.       3505.    
        3505.       3505.       3503.       3503.       3503.       3505.       3505.       3505.       3510.       3510.    
        3510.       3517.       3517.       3517.       3524.       3524.       3524.       3529.       3529.       3529.    
        3531.       3531.       3531.       3533.       3533.       3533.       3535.       3535.       3535.       3534.    
        3534.       3534.       3533.       3533.       3533.       3532.       3532.       3532.       3534.       3534.    
        3534.       3534.       3534.       3534.       3534.       3535.       3535.       3535.       3535.       3535.    
        3535.       3535.       3535.       3535.       3532.       3532.       3532.       3532.       3532.       3532.    
        3536.       3536.       3536.       3539.       3539.       3539.       3541.       3541.       3541.       3543.    
        3543.       3543.       3547.       3547.       3547.       3545.       3545.       3545.       3544.       3544.    
        3544.       3547.       3547.       3547.       3549.       3549.       3549.       3551.       3551.       3551.    
        3553.       3553.       3553.       3554.       3554.       3554.       3557.       3557.       3557.       3560.    
        3560.       3560.       3560.       3563.       3563.       3563.       3568.       3568.       3568.       3573.    
        3573.       3573.       3581.       3581.       3581.       3587.       3587.       3587.       3592.       3592.    
        3592.       3595.       3595.       3595.       3592.       3592.       3592.       3585.       3585.       3585.    
        3580.       3580.       3580.       3575.       3575.       3571.       3571.       3569.       3564.       3563.    
        3560.       3560.       3560.       3559.       3561.       3564.       3564.       3566.       3567.       3572.    
        3577.       3578.       3578.       3579.       3581.       3583.    
   8    3483.       3481.       3485.       3485.       3485.       3478.       3478.       3483.       3484.       3484.    
        3484.       3488.       3489.       3494.       3498.       3498.       3501.       3501.       3501.       3501.    
        3501.       3501.       3501.       3501.       3501.       3501.       3502.       3502.       3502.       3506.    
        3506.       3506.       3503.       3503.       3503.       3502.       3502.       3502.       3504.       3504.    
        3504.       3510.       3510.       3510.       3515.       3515.       3515.       3523.       3523.       3523.    
        3529.       3529.       3529.       3536.       3536.       3536.       3539.       3539.       3539.       3537.    
        3537.       3537.       3535.       3535.       3535.       3534.       3534.       3534.       3534.       3534.    
        3534.       3535.       3535.       3535.       3535.       3538.       3538.       3538.       3537.       3537.    
        3537.       3534.       3534.       3534.       3533.       3533.       3533.       3533.       3533.       3533.    
        3536.       3536.       3536.       3539.       3539.       3539.       3537.       3537.       3537.       3539.    
        3539.       3539.       3543.       3543.       3543.       3546.       3546.       3546.       3545.       3545.    
        3545.       3543.       3543.       3543.       3542.       3542.       3542.       3545.       3545.       3545.    
        3548.       3548.       3548.       3552.       3552.       3552.       3555.       3555.       3555.       3557.    
        3557.       3557.       3557.       3558.       3558.       3558.       3558.       3558.       3558.       3559.    
        3559.       3559.       3563.       3563.       3563.       3570.       3570.       3570.       3575.       3575.    
        3575.       3575.       3575.       3575.       3566.       3566.       3566.       3560.       3560.       3560.    
        3555.       3555.       3555.       3550.       3550.       3549.       3549.       3549.       3550.       3551.    
        3549.       3549.       3547.       3548.       3551.       3553.       3553.       3553.       3554.       3555.    
        3558.       3563.       3563.       3566.       3567.       3567.    
   9    3483.       3484.       3487.       3484.       3484.       3485.       3478.       3482.       3482.       3482.    
        3483.       3488.       3488.       3492.       3495.       3495.       3498.       3498.       3498.       3500.    
        3500.       3500.       3500.       3500.       3500.       3500.       3500.       3500.       3500.       3502.    
        3502.       3502.       3503.       3503.       3503.       3502.       3502.       3502.       3501.       3501.    
        3501.       3504.       3504.       3504.       3507.       3507.       3507.       3512.       3512.       3512.    
        3522.       3522.       3522.       3531.       3531.       3531.       3536.       3536.       3536.       3538.    
        3538.       3538.       3539.       3539.       3539.       3540.       3540.       3540.       3540.       3540.    
        3540.       3539.       3539.       3539.       3539.       3540.       3540.       3540.       3540.       3540.    
        3540.       3539.       3539.       3539.       3537.       3537.       3537.       3537.       3537.       3537.    
        3537.       3537.       3537.       3537.       3537.       3537.       3537.       3537.       3537.       3540.    
        3540.       3540.       3544.       3544.       3544.       3549.       3549.       3549.       3549.       3549.    
        3549.       3547.       3547.       3547.       3544.       3544.       3544.       3542.       3542.       3542.    
        3541.       3541.       3541.       3544.       3544.       3544.       3548.       3548.       3548.       3551.    
        3551.       3551.       3551.       3554.       3554.       3554.       3556.       3556.       3556.       3557.    
        3557.       3557.       3560.       3560.       3560.       3561.       3561.       3561.       3556.       3556.    
        3556.       3551.       3551.       3551.       3551.       3551.       3551.       3552.       3552.       3552.    
        3548.       3548.       3548.       3545.       3545.       3546.       3546.       3547.       3547.       3546.    
        3541.       3541.       3539.       3542.       3547.       3548.       3548.       3547.       3546.       3544.    
        3546.       3551.       3551.       3553.       3551.       3550.    
  10    3487.       3487.       3487.       3489.       3489.       3487.       3481.       3478.       3482.       3482.    
        3484.       3486.       3487.       3488.       3492.       3492.       3496.       3496.       3496.       3501.    
        3501.       3501.       3501.       3501.       3501.       3501.       3503.       3503.       3503.       3505.    
        3505.       3505.       3505.       3505.       3505.       3506.       3506.       3506.       3505.       3505.    
        3505.       3504.       3504.       3504.       3504.       3504.       3504.       3507.       3507.       3507.    
        3512.       3512.       3512.       3520.       3520.       3520.       3530.       3530.       3530.       3534.    
        3534.       3534.       3535.       3535.       3535.       3536.       3536.       3536.       3538.       3538.    
        3538.       3541.       3541.       3541.       3541.       3542.       3542.       3542.       3540.       3540.    
        3540.       3541.       3541.       3541.       3541.       3541.       3541.       3541.       3541.       3541.    
        3542.       3542.       3542.       3542.       3542.       3542.       3540.       3540.       3540.       3540.    
        3540.       3540.       3546.       3546.       3546.       3548.       3548.       3548.       3549.       3549.    
        3549.       3550.       3550.       3550.       3549.       3549.       3549.       3548.       3548.       3548.    
        3546.       3546.       3546.       3544.       3544.       3544.       3542.       3542.       3542.       3543.    
        3543.       3543.       3543.       3546.       3546.       3546.       3549.       3549.       3549.       3551.    
        3551.       3551.       3551.       3551.       3551.       3544.       3544.       3544.       3535.       3535.    
        3535.       3533.       3533.       3533.       3537.       3537.       3537.       3541.       3541.       3541.    
        3540.       3540.       3540.       3538.       3538.       3538.       3538.       3539.       3539.       3539.    
        3536.       3536.       3536.       3537.       3540.       3543.       3543.       3544.       3543.       3541.    
        3542.       3543.       3543.       3544.       3545.       3545.    
  11    3487.       3487.       3487.       3489.       3489.       3487.       3481.       3478.       3482.       3482.    
        3484.       3486.       3487.       3488.       3492.       3492.       3496.       3496.       3496.       3501.    
        3501.       3501.       3501.       3501.       3501.       3501.       3503.       3503.       3503.       3505.    
        3505.       3505.       3505.       3505.       3505.       3506.       3506.       3506.       3505.       3505.    
        3505.       3504.       3504.       3504.       3504.       3504.       3504.       3507.       3507.       3507.    
        3512.       3512.       3512.       3520.       3520.       3520.       3530.       3530.       3530.       3534.    
        3534.       3534.       3535.       3535.       3535.       3536.       3536.       3536.       3538.       3538.    
        3538.       3541.       3541.       3541.       3541.       3542.       3542.       3542.       3540.       3540.    
        3540.       3541.       3541.       3541.       3541.       3541.       3541.       3541.       3541.       3541.    
        3542.       3542.       3542.       3542.       3542.       3542.       3540.       3540.       3540.       3540.    
        3540.       3540.       3546.       3546.       3546.       3548.       3548.       3548.       3549.       3549.    
        3549.       3550.       3550.       3550.       3549.       3549.       3549.       3548.       3548.       3548.    
        3546.       3546.       3546.       3544.       3544.       3544.       3542.       3542.       3542.       3543.    
        3543.       3543.       3543.       3546.       3546.       3546.       3549.       3549.       3549.       3551.    
        3551.       3551.       3551.       3551.       3551.       3544.       3544.       3544.       3535.       3535.    
        3535.       3533.       3533.       3533.       3537.       3537.       3537.       3541.       3541.       3541.    
        3540.       3540.       3540.       3538.       3538.       3538.       3538.       3539.       3539.       3539.    
        3536.       3536.       3536.       3537.       3540.       3543.       3543.       3544.       3543.       3541.    
        3542.       3543.       3543.       3544.       3545.       3545.    
  12    3488.       3488.       3488.       3491.       3491.       3485.       3481.       3480.       3483.       3483.    
        3482.       3483.       3483.       3485.       3489.       3489.       3493.       3493.       3493.       3499.    
        3499.       3499.       3499.       3504.       3504.       3504.       3504.       3504.       3504.       3507.    
        3507.       3507.       3507.       3507.       3507.       3505.       3505.       3505.       3507.       3507.    
        3507.       3507.       3507.       3507.       3505.       3505.       3505.       3506.       3506.       3506.    
        3508.       3508.       3508.       3512.       3512.       3512.       3517.       3517.       3517.       3524.    
        3524.       3524.       3530.       3530.       3530.       3533.       3533.       3533.       3535.       3535.    
        3535.       3537.       3537.       3537.       3537.       3538.       3538.       3538.       3539.       3539.    
        3539.       3538.       3538.       3538.       3540.       3540.       3540.       3539.       3539.       3539.    
        3540.       3540.       3540.       3541.       3541.       3541.       3542.       3542.       3542.       3542.    
        3542.       3542.       3546.       3546.       3546.       3543.       3543.       3543.       3545.       3545.    
        3545.       3546.       3546.       3546.       3546.       3546.       3546.       3545.       3545.       3545.    
        3544.       3544.       3544.       3543.       3543.       3543.       3542.       3542.       3542.       3544.    
        3544.       3544.       3544.       3540.       3540.       3540.       3538.       3538.       3538.       3535.    
        3535.       3535.       3532.       3532.       3532.       3527.       3527.       3527.       3524.       3524.    
        3524.       3525.       3525.       3525.       3524.       3524.       3524.       3525.       3525.       3525.    
        3527.       3527.       3527.       3530.       3530.       3533.       3533.       3534.       3534.       3533.    
        3531.       3531.       3531.       3531.       3533.       3537.       3537.       3537.       3538.       3539.    
        3540.       3540.       3540.       3542.       3544.       3546.    
  13    3487.       3484.       3481.       3483.       3483.       3484.       3482.       3482.       3482.       3482.    
        3479.       3478.       3479.       3482.       3486.       3486.       3490.       3490.       3490.       3495.    
        3495.       3495.       3495.       3500.       3500.       3500.       3503.       3503.       3503.       3506.    
        3506.       3506.       3506.       3506.       3506.       3503.       3503.       3503.       3502.       3502.    
        3502.       3503.       3503.       3503.       3502.       3502.       3502.       3503.       3503.       3503.    
        3504.       3504.       3504.       3506.       3506.       3506.       3507.       3507.       3507.       3510.    
        3510.       3510.       3515.       3515.       3515.       3521.       3521.       3521.       3526.       3526.    
        3526.       3529.       3529.       3529.       3529.       3531.       3531.       3531.       3532.       3532.    
        3532.       3533.       3533.       3533.       3534.       3534.       3534.       3536.       3536.       3536.    
        3537.       3537.       3537.       3537.       3537.       3537.       3537.       3537.       3537.       3538.    
        3538.       3538.       3540.       3540.       3540.       3543.       3543.       3543.       3537.       3537.    
        3537.       3537.       3537.       3537.       3538.       3538.       3538.       3539.       3539.       3539.    
        3541.       3541.       3541.       3541.       3541.       3541.       3540.       3540.       3540.       3540.    
        3540.       3540.       3540.       3534.       3534.       3534.       3528.       3528.       3528.       3525.    
        3525.       3525.       3523.       3523.       3523.       3522.       3522.       3522.       3520.       3520.    
        3520.       3520.       3520.       3520.       3519.       3519.       3519.       3518.       3518.       3518.    
        3519.       3519.       3519.       3522.       3522.       3524.       3524.       3526.       3528.       3527.    
        3529.       3529.       3530.       3533.       3534.       3537.       3537.       3538.       3537.       3538.    
        3541.       3542.       3542.       3542.       3544.       3547.    
  14    3491.       3487.       3483.       3482.       3482.       3482.       3486.       3484.       3481.       3481.    
        3479.       3482.       3483.       3483.       3482.       3482.       3486.       3486.       3486.       3493.    
        3493.       3493.       3493.       3499.       3499.       3499.       3503.       3503.       3503.       3502.    
        3502.       3502.       3503.       3503.       3503.       3500.       3500.       3500.       3499.       3499.    
        3499.       3499.       3499.       3499.       3500.       3500.       3500.       3501.       3501.       3501.    
        3503.       3503.       3503.       3502.       3502.       3502.       3500.       3500.       3500.       3502.    
        3502.       3502.       3506.       3506.       3506.       3511.       3511.       3511.       3515.       3515.    
        3515.       3517.       3517.       3517.       3517.       3519.       3519.       3519.       3521.       3521.    
        3521.       3523.       3523.       3523.       3527.       3527.       3527.       3529.       3529.       3529.    
        3530.       3530.       3530.       3530.       3530.       3530.       3530.       3530.       3530.       3531.    
        3531.       3531.       3532.       3532.       3532.       3534.       3534.       3534.       3537.       3537.    
        3537.       3529.       3529.       3529.       3528.       3528.       3528.       3528.       3528.       3528.    
        3527.       3527.       3527.       3527.       3527.       3527.       3527.       3527.       3527.       3526.    
        3526.       3526.       3526.       3525.       3525.       3525.       3522.       3522.       3522.       3519.    
        3519.       3519.       3519.       3519.       3519.       3519.       3519.       3519.       3521.       3521.    
        3521.       3523.       3523.       3523.       3524.       3524.       3524.       3523.       3523.       3523.    
        3524.       3524.       3524.       3525.       3525.       3527.       3527.       3529.       3528.       3527.    
        3531.       3531.       3535.       3536.       3538.       3540.       3540.       3540.       3539.       3539.    
        3540.       3540.       3540.       3540.       3543.       3546.    
  15    3495.       3490.       3485.       3483.       3483.       3483.       3488.       3488.       3484.       3484.    
        3481.       3483.       3485.       3487.       3485.       3485.       3485.       3485.       3485.       3488.    
        3488.       3488.       3488.       3494.       3494.       3494.       3499.       3499.       3499.       3503.    
        3503.       3503.       3505.       3505.       3505.       3504.       3504.       3504.       3506.       3506.    
        3506.       3507.       3507.       3507.       3507.       3507.       3507.       3509.       3509.       3509.    
        3508.       3508.       3508.       3509.       3509.       3509.       3507.       3507.       3507.       3506.    
        3506.       3506.       3505.       3505.       3505.       3505.       3505.       3505.       3506.       3506.    
        3506.       3508.       3508.       3508.       3508.       3510.       3510.       3510.       3513.       3513.    
        3513.       3515.       3515.       3515.       3516.       3516.       3516.       3518.       3518.       3518.    
        3520.       3520.       3520.       3521.       3521.       3521.       3522.       3522.       3522.       3522.    
        3522.       3522.       3523.       3523.       3523.       3526.       3526.       3526.       3528.       3528.    
        3528.       3521.       3521.       3521.       3523.       3523.       3523.       3526.       3526.       3526.    
        3526.       3526.       3526.       3525.       3525.       3525.       3522.       3522.       3522.       3516.    
        3516.       3516.       3516.       3516.       3516.       3516.       3518.       3518.       3518.       3519.    
        3519.       3519.       3519.       3519.       3519.       3519.       3519.       3519.       3522.       3522.    
        3522.       3525.       3525.       3525.       3526.       3526.       3526.       3527.       3527.       3527.    
        3530.       3530.       3530.       3534.       3534.       3535.       3535.       3533.       3530.       3530.    
        3533.       3533.       3537.       3538.       3539.       3540.       3540.       3542.       3542.       3542.    
        3542.       3541.       3541.       3543.       3545.       3547.    
  16    3499.       3495.       3491.       3485.       3485.       3478.       3480.       3486.       3488.       3488.    
        3482.       3481.       3483.       3486.       3488.       3488.       3488.       3488.       3488.       3488.    
        3488.       3488.       3488.       3489.       3489.       3489.       3489.       3489.       3489.       3493.    
        3493.       3493.       3496.       3496.       3496.       3500.       3500.       3500.       3502.       3502.    
        3502.       3501.       3501.       3501.       3506.       3506.       3506.       3508.       3508.       3508.    
        3508.       3508.       3508.       3508.       3508.       3508.       3509.       3509.       3509.       3512.    
        3512.       3512.       3512.       3512.       3512.       3513.       3513.       3513.       3512.       3512.    
        3512.       3509.       3509.       3509.       3509.       3509.       3509.       3509.       3511.       3511.    
        3511.       3512.       3512.       3512.       3512.       3512.       3512.       3511.       3511.       3511.    
        3513.       3513.       3513.       3514.       3514.       3514.       3516.       3516.       3516.       3517.    
        3517.       3517.       3519.       3519.       3519.       3520.       3520.       3520.       3521.       3521.    
        3521.       3521.       3521.       3521.       3516.       3516.       3516.       3518.       3518.       3518.    
        3520.       3520.       3520.       3519.       3519.       3519.       3517.       3517.       3517.       3514.    
        3514.       3514.       3514.       3514.       3514.       3514.       3515.       3515.       3515.       3517.    
        3517.       3517.       3519.       3519.       3519.       3519.       3519.       3519.       3522.       3522.    
        3522.       3524.       3524.       3524.       3526.       3526.       3526.       3527.       3527.       3527.    
        3529.       3529.       3529.       3531.       3531.       3532.       3532.       3531.       3531.       3532.    
        3534.       3534.       3536.       3536.       3537.       3541.       3541.       3543.       3544.       3543.    
        3540.       3540.       3540.       3542.       3546.       3547.    
  17    3499.       3495.       3491.       3485.       3485.       3478.       3480.       3486.       3488.       3488.    
        3482.       3481.       3483.       3486.       3488.       3488.       3488.       3488.       3488.       3488.    
        3488.       3488.       3488.       3489.       3489.       3489.       3489.       3489.       3489.       3493.    
        3493.       3493.       3496.       3496.       3496.       3500.       3500.       3500.       3502.       3502.    
        3502.       3501.       3501.       3501.       3506.       3506.       3506.       3508.       3508.       3508.    
        3508.       3508.       3508.       3508.       3508.       3508.       3509.       3509.       3509.       3512.    
        3512.       3512.       3512.       3512.       3512.       3513.       3513.       3513.       3512.       3512.    
        3512.       3509.       3509.       3509.       3509.       3509.       3509.       3509.       3511.       3511.    
        3511.       3512.       3512.       3512.       3512.       3512.       3512.       3511.       3511.       3511.    
        3513.       3513.       3513.       3514.       3514.       3514.       3516.       3516.       3516.       3517.    
        3517.       3517.       3519.       3519.       3519.       3520.       3520.       3520.       3521.       3521.    
        3521.       3521.       3521.       3521.       3516.       3516.       3516.       3518.       3518.       3518.    
        3520.       3520.       3520.       3519.       3519.       3519.       3517.       3517.       3517.       3514.    
        3514.       3514.       3514.       3514.       3514.       3514.       3515.       3515.       3515.       3517.    
        3517.       3517.       3519.       3519.       3519.       3519.       3519.       3519.       3522.       3522.    
        3522.       3524.       3524.       3524.       3526.       3526.       3526.       3527.       3527.       3527.    
        3529.       3529.       3529.       3531.       3531.       3532.       3532.       3531.       3531.       3532.    
        3534.       3534.       3536.       3536.       3537.       3541.       3541.       3543.       3544.       3543.    
        3540.       3540.       3540.       3542.       3546.       3547.    
  18    3499.       3496.       3497.       3486.       3486.       3487.       3485.       3486.       3488.       3488.    
        3483.       3483.       3486.       3490.       3492.       3492.       3493.       3493.       3493.       3493.    
        3493.       3493.       3493.       3491.       3491.       3491.       3489.       3489.       3489.       3487.    
        3487.       3487.       3489.       3489.       3489.       3493.       3493.       3493.       3496.       3496.    
        3496.       3497.       3497.       3497.       3498.       3498.       3498.       3498.       3498.       3498.    
        3502.       3502.       3502.       3506.       3506.       3506.       3511.       3511.       3511.       3509.    
        3509.       3509.       3509.       3509.       3509.       3511.       3511.       3511.       3512.       3512.    
        3512.       3511.       3511.       3511.       3511.       3510.       3510.       3510.       3514.       3514.    
        3514.       3515.       3515.       3515.       3514.       3514.       3514.       3511.       3511.       3511.    
        3510.       3510.       3510.       3512.       3512.       3512.       3513.       3513.       3513.       3513.    
        3513.       3513.       3514.       3514.       3514.       3517.       3517.       3517.       3518.       3518.    
        3518.       3518.       3518.       3518.       3516.       3516.       3516.       3508.       3508.       3508.    
        3510.       3510.       3510.       3514.       3514.       3514.       3515.       3515.       3515.       3515.    
        3515.       3515.       3515.       3516.       3516.       3516.       3518.       3518.       3518.       3523.    
        3523.       3523.       3526.       3526.       3526.       3526.       3526.       3526.       3525.       3525.    
        3525.       3526.       3526.       3526.       3528.       3528.       3528.       3530.       3530.       3530.    
        3533.       3533.       3533.       3536.       3536.       3538.       3538.       3536.       3535.       3534.    
        3535.       3535.       3537.       3536.       3535.       3537.       3537.       3541.       3543.       3542.    
        3540.       3539.       3539.       3540.       3544.       3547.    
  19    3503.       3501.       3499.       3490.       3490.       3493.       3497.       3491.       3491.       3491.    
        3484.       3485.       3487.       3490.       3493.       3493.       3495.       3495.       3495.       3496.    
        3496.       3496.       3496.       3495.       3495.       3495.       3494.       3494.       3494.       3491.    
        3491.       3491.       3490.       3490.       3490.       3492.       3492.       3492.       3494.       3494.    
        3494.       3495.       3495.       3495.       3493.       3493.       3493.       3492.       3492.       3492.    
        3494.       3494.       3494.       3500.       3500.       3500.       3504.       3504.       3504.       3504.    
        3504.       3504.       3505.       3505.       3505.       3507.       3507.       3507.       3509.       3509.    
        3509.       3508.       3508.       3508.       3508.       3508.       3508.       3508.       3509.       3509.    
        3509.       3513.       3513.       3513.       3511.       3511.       3511.       3510.       3510.       3510.    
        3510.       3510.       3510.       3511.       3511.       3511.       3512.       3512.       3512.       3513.    
        3513.       3513.       3515.       3515.       3515.       3516.       3516.       3516.       3518.       3518.    
        3518.       3515.       3515.       3515.       3510.       3510.       3510.       3508.       3508.       3508.    
        3505.       3505.       3505.       3511.       3511.       3511.       3514.       3514.       3514.       3516.    
        3516.       3516.       3516.       3519.       3519.       3519.       3520.       3520.       3520.       3521.    
        3521.       3521.       3525.       3525.       3525.       3527.       3527.       3527.       3528.       3528.    
        3528.       3528.       3528.       3528.       3529.       3529.       3529.       3530.       3530.       3530.    
        3533.       3533.       3533.       3537.       3537.       3540.       3540.       3540.       3538.       3536.    
        3535.       3535.       3535.       3535.       3535.       3537.       3537.       3538.       3541.       3543.    
        3541.       3542.       3542.       3547.       3550.       3552.    
  20    3504.       3502.       3497.       3491.       3491.       3495.       3498.       3493.       3493.       3493.    
        3489.       3486.       3484.       3486.       3490.       3490.       3493.       3493.       3493.       3491.    
        3491.       3491.       3491.       3491.       3491.       3491.       3493.       3493.       3493.       3493.    
        3493.       3493.       3492.       3492.       3492.       3493.       3493.       3493.       3493.       3493.    
        3493.       3493.       3493.       3493.       3494.       3494.       3494.       3493.       3493.       3493.    
        3492.       3492.       3492.       3495.       3495.       3495.       3497.       3497.       3497.       3497.    
        3497.       3497.       3498.       3498.       3498.       3500.       3500.       3500.       3503.       3503.    
        3503.       3503.       3503.       3503.       3503.       3504.       3504.       3504.       3506.       3506.    
        3506.       3510.       3510.       3510.       3510.       3510.       3510.       3508.       3508.       3508.    
        3509.       3509.       3509.       3510.       3510.       3510.       3510.       3510.       3510.       3511.    
        3511.       3511.       3515.       3515.       3515.       3517.       3517.       3517.       3519.       3519.    
        3519.       3514.       3514.       3514.       3508.       3508.       3508.       3504.       3504.       3504.    
        3505.       3505.       3505.       3514.       3514.       3514.       3516.       3516.       3516.       3518.    
        3518.       3518.       3518.       3521.       3521.       3521.       3521.       3521.       3521.       3521.    
        3521.       3521.       3524.       3524.       3524.       3527.       3527.       3527.       3530.       3530.    
        3530.       3530.       3530.       3530.       3529.       3529.       3529.       3531.       3531.       3531.    
        3533.       3533.       3533.       3537.       3537.       3540.       3540.       3541.       3537.       3536.    
        3535.       3535.       3536.       3534.       3536.       3538.       3538.       3541.       3545.       3545.    
        3546.       3549.       3549.       3552.       3551.       3552.    
  21    3505.       3505.       3500.       3491.       3491.       3494.       3493.       3492.       3492.       3492.    
        3491.       3486.       3482.       3484.       3485.       3485.       3487.       3487.       3487.       3488.    
        3488.       3488.       3488.       3488.       3488.       3488.       3490.       3490.       3490.       3493.    
        3493.       3493.       3493.       3493.       3493.       3491.       3491.       3491.       3491.       3491.    
        3491.       3492.       3492.       3492.       3494.       3494.       3494.       3497.       3497.       3497.    
        3495.       3495.       3495.       3495.       3495.       3495.       3495.       3495.       3495.       3495.    
        3495.       3495.       3494.       3494.       3494.       3495.       3495.       3495.       3496.       3496.    
        3496.       3497.       3497.       3497.       3497.       3499.       3499.       3499.       3502.       3502.    
        3502.       3506.       3506.       3506.       3509.       3509.       3509.       3509.       3509.       3509.    
        3510.       3510.       3510.       3510.       3510.       3510.       3508.       3508.       3508.       3510.    
        3510.       3510.       3514.       3514.       3514.       3515.       3515.       3515.       3515.       3515.    
        3515.       3512.       3512.       3512.       3509.       3509.       3509.       3506.       3506.       3506.    
        3507.       3507.       3507.       3514.       3514.       3514.       3518.       3518.       3518.       3520.    
        3520.       3520.       3520.       3523.       3523.       3523.       3525.       3525.       3525.       3526.    
        3526.       3526.       3526.       3526.       3526.       3528.       3528.       3528.       3530.       3530.    
        3530.       3531.       3531.       3531.       3532.       3532.       3532.       3534.       3534.       3534.    
        3535.       3535.       3535.       3534.       3534.       3534.       3534.       3537.       3536.       3536.    
        3537.       3537.       3535.       3533.       3536.       3541.       3541.       3544.       3545.       3545.    
        3547.       3548.       3548.       3549.       3549.       3550.    
  22    3505.       3505.       3500.       3491.       3491.       3494.       3493.       3492.       3492.       3492.    
        3491.       3486.       3482.       3484.       3485.       3485.       3487.       3487.       3487.       3488.    
        3488.       3488.       3488.       3488.       3488.       3488.       3490.       3490.       3490.       3493.    
        3493.       3493.       3493.       3493.       3493.       3491.       3491.       3491.       3491.       3491.    
        3491.       3492.       3492.       3492.       3494.       3494.       3494.       3497.       3497.       3497.    
        3495.       3495.       3495.       3495.       3495.       3495.       3495.       3495.       3495.       3495.    
        3495.       3495.       3494.       3494.       3494.       3495.       3495.       3495.       3496.       3496.    
        3496.       3497.       3497.       3497.       3497.       3499.       3499.       3499.       3502.       3502.    
        3502.       3506.       3506.       3506.       3509.       3509.       3509.       3509.       3509.       3509.    
        3510.       3510.       3510.       3510.       3510.       3510.       3508.       3508.       3506.       3510.    
        3510.       3510.       3514.       3514.       3514.       3515.       3515.       3515.       3515.       3515.    
        3515.       3512.       3512.       3512.       3509.       3509.       3509.       3506.       3506.       3506.    
        3507.       3507.       3507.       3514.       3514.       3514.       3518.       3518.       3518.       3520.    
        3520.       3520.       3520.       3523.       3523.       3523.       3525.       3525.       3525.       3526.    
        3526.       3526.       3526.       3526.       3526.       3528.       3528.       3528.       3530.       3530.    
        3530.       3531.       3531.       3531.       3532.       3532.       3532.       3531.       3534.       3534.    
        3535.       3535.       3535.       3534.       3534.       3534.       3534.       3537.       3536.       3536.    
        3537.       3537.       3535.       3533.       3536.       3541.       3541.       3544.       3545.       3545.    
        3547.       3548.       3548.       3549.       3549.       3550.    
  23    3506.       3502.       3493.       3490.       3490.       3489.       3491.       3493.       3491.       3491.    
        3490.       3486.       3485.       3486.       3485.       3485.       3487.       3487.       3487.       3488.    
        3488.       3488.       3488.       3489.       3489.       3489.       3491.       3491.       3491.       3492.    
        3492.       3492.       3494.       3494.       3494.       3494.       3494.       3494.       3493.       3493.    
        3493.       3493.       3493.       3493.       3495.       3495.       3495.       3496.       3496.       3496.    
        3495.       3495.       3495.       3496.       3496.       3496.       3497.       3497.       3497.       3498.    
        3498.       3498.       3497.       3497.       3497.       3496.       3496.       3496.       3496.       3496.    
        3496.       3495.       3495.       3495.       3495.       3498.       3498.       3498.       3499.       3499.    
        3499.       3502.       3502.       3502.       3504.       3504.       3504.       3503.       3503.       3503.    
        3505.       3505.       3505.       3506.       3506.       3506.       3506.       3506.       3506.       3506.    
        3506.       3506.       3506.       3506.       3506.       3507.       3507.       3507.       3508.       3508.    
        3508.       3508.       3508.       3508.       3509.       3509.       3509.       3511.       3511.       3511.    
        3514.       3514.       3514.       3517.       3517.       3517.       3518.       3518.       3518.       3520.    
        3520.       3520.       3520.       3522.       3522.       3522.       3523.       3523.       3523.       3524.    
        3524.       3524.       3524.       3524.       3524.       3524.       3524.       3524.       3526.       3526.    
        3526.       3526.       3526.       3526.       3528.       3528.       3528.       3531.       3531.       3531.    
        3533.       3533.       3533.       3533.       3533.       3534.       3534.       3535.       3535.       3537.    
        3539.       3539.       3538.       3537.       3537.       3541.       3541.       3543.       3545.       3545.    
        3546.       3546.       3546.       3546.       3547.       3549.    
  24    3504.       3501.       3493.       3490.       3490.       3488.       3488.       3492.       3490.       3490.    
        3488.       3487.       3490.       3489.       3490.       3490.       3491.       3491.       3491.       3492.    
        3492.       3492.       3492.       3493.       3493.       3493.       3494.       3494.       3494.       3496.    
        3496.       3496.       3498.       3498.       3498.       3499.       3499.       3499.       3498.       3498.    
        3498.       3497.       3497.       3497.       3497.       3497.       3497.       3497.       3497.       3497.    
        3497.       3497.       3497.       3498.       3498.       3498.       3499.       3499.       3499.       3501.    
        3501.       3501.       3501.       3501.       3501.       3502.       3502.       3502.       3502.       3502.    
        3502.       3501.       3501.       3501.       3501.       3501.       3501.       3501.       3503.       3503.    
        3503.       3503.       3503.       3503.       3502.       3502.       3502.       3503.       3503.       3503.    
        3503.       3503.       3503.       3505.       3505.       3505.       3507.       3507.       3507.       3508.    
        3508.       3508.       3508.       3508.       3508.       3508.       3508.       3508.       3510.       3510.    
        3510.       3510.       3510.       3510.       3513.       3513.       3513.       3515.       3515.       3515.    
        3517.       3517.       3517.       3517.       3517.       3517.       3519.       3519.       3519.       3519.    
        3519.       3519.       3519.       3521.       3521.       3521.       3524.       3524.       3524.       3525.    
        3525.       3525.       3527.       3527.       3527.       3529.       3529.       3529.       3531.       3531.    
        3531.       3532.       3532.       3532.       3534.       3534.       3534.       3534.       3534.       3534.    
        3533.       3533.       3533.       3532.       3532.       3533.       3533.       3535.       3538.       3539.    
        3541.       3541.       3543.       3543.       3542.       3541.       3541.       3542.       3544.       3546.    
        3544.       3544.       3544.       3546.       3547.       3549.    
  25    3500.       3498.       3491.       3486.       3486.       3488.       3487.       3494.       3491.       3491.    
        3489.       3488.       3490.       3491.       3493.       3493.       3495.       3495.       3495.       3494.    
        3494.       3494.       3494.       3495.       3495.       3495.       3497.       3497.       3497.       3499.    
        3499.       3499.       3499.       3499.       3499.       3499.       3499.       3499.       3499.       3499.    
        3499.       3498.       3498.       3498.       3497.       3497.       3497.       3497.       3497.       3497.    
        3499.       3499.       3499.       3501.       3501.       3501.       3503.       3503.       3503.       3505.    
        3505.       3505.       3506.       3506.       3506.       3506.       3506.       3506.       3507.       3507.    
        3507.       3508.       3508.       3508.       3508.       3507.       3507.       3507.       3506.       3506.    
        3506.       3504.       3504.       3504.       3505.       3505.       3505.       3507.       3507.       3507.    
        3507.       3507.       3507.       3508.       3508.       3508.       3509.       3509.       3509.       3511.    
        3511.       3511.       3514.       3514.       3514.       3515.       3515.       3515.       3517.       3517.    
        3517.       3517.       3517.       3517.       3516.       3516.       3516.       3516.       3516.       3516.    
        3516.       3516.       3516.       3516.       3516.       3516.       3518.       3518.       3518.       3519.    
        3519.       3519.       3519.       3522.       3522.       3522.       3525.       3525.       3525.       3526.    
        3526.       3526.       3529.       3529.       3529.       3531.       3531.       3531.       3535.       3535.    
        3535.       3539.       3539.       3539.       3542.       3542.       3542.       3542.       3542.       3542.    
        3537.       3537.       3537.       3534.       3534.       3535.       3535.       3537.       3539.       3539.    
        3540.       3540.       3543.       3546.       3545.       3546.       3546.       3546.       3546.       3548.    
        3550.       3550.       3550.       3549.       3549.       3551.    
  26    3498.       3493.       3489.       3488.       3488.       3489.       3490.       3493.       3492.       3492.    
        3491.       3490.       3489.       3490.       3493.       3493.       3495.       3495.       3495.       3493.    
        3493.       3493.       3493.       3493.       3493.       3493.       3496.       3496.       3496.       3499.    
        3499.       3499.       3500.       3500.       3500.       3498.       3498.       3498.       3498.       3498.    
        3498.       3497.       3497.       3497.       3497.       3497.       3497.       3498.       3498.       3498.    
        3500.       3500.       3500.       3502.       3502.       3502.       3500.       3500.       3500.       3501.    
        3501.       3501.       3503.       3503.       3503.       3504.       3504.       3504.       3505.       3505.    
        3505.       3507.       3507.       3507.       3507.       3509.       3509.       3509.       3507.       3507.    
        3507.       3507.       3507.       3507.       3508.       3508.       3508.       3508.       3508.       3508.    
        3506.       3506.       3506.       3506.       3506.       3506.       3507.       3507.       3507.       3508.    
        3508.       3508.       3511.       3511.       3511.       3513.       3513.       3513.       3515.       3515.    
        3515.       3517.       3517.       3517.       3518.       3518.       3518.       3517.       3517.       3517.    
        3517.       3517.       3517.       3516.       3516.       3516.       3518.       3518.       3518.       3521.    
        3521.       3521.       3521.       3522.       3522.       3522.       3527.       3527.       3527.       3527.    
        3527.       3527.       3529.       3529.       3529.       3531.       3531.       3531.       3533.       3533.    
        3533.       3536.       3536.       3536.       3541.       3541.       3541.       3543.       3543.       3543.    
        3543.       3543.       3543.       3541.       3541.       3540.       3540.       3541.       3541.       3539.    
        3539.       3539.       3544.       3546.       3546.       3545.       3545.       3547.       3547.       3546.    
        3548.       3550.       3550.       3551.       3551.       3552.    
  27    3498.       3493.       3489.       3488.       3488.       3489.       3490.       3493.       3492.       3492.    
        3491.       3490.       3489.       3490.       3493.       3493.       3495.       3495.       3495.       3493.    
        3493.       3493.       3493.       3493.       3493.       3493.       3496.       3496.       3496.       3499.    
        3499.       3499.       3500.       3500.       3500.       3498.       3498.       3498.       3498.       3498.    
        3498.       3497.       3497.       3497.       3497.       3497.       3497.       3498.       3498.       3498.    
        3500.       3500.       3500.       3502.       3502.       3502.       3500.       3500.       3500.       3501.    
        3501.       3501.       3503.       3503.       3503.       3504.       3504.       3504.       3505.       3505.    
        3505.       3507.       3507.       3507.       3507.       3509.       3509.       3509.       3507.       3507.    
        3507.       3507.       3507.       3507.       3508.       3508.       3508.       3508.       3508.       3508.    
        3506.       3506.       3506.       3506.       3506.       3506.       3507.       3507.       3507.       3508.    
        3508.       3508.       3511.       3511.       3511.       3513.       3513.       3513.       3515.       3515.    
        3515.       3517.       3517.       3517.       3518.       3518.       3518.       3517.       3517.       3517.    
        3517.       3517.       3517.       3516.       3516.       3516.       3518.       3518.       3518.       3521.    
        3521.       3521.       3521.       3522.       3522.       3522.       3527.       3527.       3527.       3527.    
        3527.       3527.       3529.       3529.       3529.       3531.       3531.       3531.       3533.       3533.    
        3533.       3536.       3536.       3536.       3541.       3541.       3541.       3543.       3543.       3543.    
        3543.       3543.       3543.       3541.       3541.       3540.       3540.       3541.       3541.       3539.    
        3539.       3539.       3544.       3546.       3546.       3545.       3545.       3547.       3547.       3546.    
        3548.       3550.       3550.       3551.       3551.       3552.    
  28    3495.       3492.       3491.       3489.       3489.       3491.       3491.       3490.       3490.       3490.    
        3489.       3491.       3494.       3495.       3497.       3497.       3497.       3497.       3497.       3496.    
        3496.       3496.       3496.       3495.       3495.       3495.       3498.       3498.       3498.       3500.    
        3500.       3500.       3500.       3500.       3500.       3499.       3499.       3499.       3501.       3501.    
        3501.       3500.       3500.       3500.       3498.       3498.       3498.       3500.       3500.       3500.    
        3501.       3501.       3501.       3502.       3502.       3502.       3501.       3501.       3501.       3501.    
        3501.       3501.       3503.       3503.       3503.       3505.       3505.       3505.       3505.       3505.    
        3505.       3505.       3505.       3505.       3505.       3505.       3505.       3505.       3506.       3506.    
        3506.       3507.       3507.       3507.       3509.       3509.       3509.       3510.       3510.       3510.    
        3509.       3509.       3509.       3509.       3509.       3509.       3510.       3510.       3510.       3510.    
        3510.       3510.       3511.       3511.       3511.       3513.       3513.       3513.       3513.       3513.    
        3513.       3515.       3515.       3515.       3518.       3518.       3518.       3517.       3517.       3517.    
        3516.       3516.       3516.       3516.       3516.       3516.       3520.       3520.       3520.       3523.    
        3523.       3523.       3523.       3525.       3525.       3525.       3527.       3527.       3527.       3530.    
        3530.       3530.       3531.       3531.       3531.       3531.       3531.       3531.       3532.       3532.    
        3532.       3535.       3535.       3535.       3537.       3537.       3537.       3541.       3541.       3541.    
        3543.       3543.       3543.       3542.       3542.       3539.       3539.       3541.       3543.       3543.    
        3543.       3543.       3545.       3546.       3545.       3543.       3543.       3545.       3548.       3546.    
        3546.       3545.       3545.       3547.       3548.       3549.    
  29    3495.       3492.       3491.       3489.       3489.       3491.       3491.       3490.       3490.       3490.    
        3489.       3491.       3494.       3495.       3497.       3497.       3497.       3497.       3497.       3496.    
        3496.       3496.       3496.       3495.       3495.       3495.       3498.       3498.       3498.       3500.    
        3500.       3500.       3500.       3500.       3500.       3499.       3499.       3499.       3501.       3501.    
        3501.       3500.       3500.       3500.       3498.       3498.       3498.       3500.       3500.       3500.    
        3501.       3501.       3501.       3502.       3502.       3502.       3501.       3501.       3501.       3501.    
        3501.       3501.       3503.       3503.       3503.       3505.       3505.       3505.       3505.       3505.    
        3505.       3505.       3505.       3505.       3505.       3505.       3505.       3505.       3506.       3506.    
        3506.       3507.       3507.       3507.       3509.       3509.       3509.       3510.       3510.       3510.    
        3509.       3509.       3509.       3509.       3509.       3509.       3510.       3510.       3510.       3510.    
        3510.       3510.       3511.       3511.       3511.       3513.       3513.       3513.       3513.       3513.    
        3513.       3515.       3515.       3515.       3518.       3518.       3518.       3517.       3517.       3517.    
        3516.       3516.       3516.       3516.       3516.       3516.       3520.       3520.       3520.       3523.    
        3523.       3523.       3523.       3525.       3525.       3525.       3527.       3527.       3527.       3530.    
        3530.       3530.       3531.       3531.       3531.       3531.       3531.       3531.       3532.       3532.    
        3532.       3535.       3535.       3535.       3537.       3537.       3537.       3541.       3541.       3541.    
        3543.       3543.       3543.       3542.       3542.       3539.       3539.       3541.       3543.       3543.    
        3543.       3543.       3545.       3546.       3545.       3543.       3543.       3545.       3548.       3546.    
        3546.       3545.       3545.       3547.       3548.       3549.    
  30    3495.       3492.       3491.       3489.       3489.       3491.       3491.       3490.       3490.       3490.    
        3489.       3491.       3494.       3495.       3497.       3497.       3497.       3497.       3497.       3496.    
        3496.       3496.       3496.       3495.       3495.       3495.       3498.       3498.       3498.       3500.    
        3500.       3500.       3500.       3500.       3500.       3499.       3499.       3499.       3501.       3501.    
        3501.       3500.       3500.       3500.       3498.       3498.       3498.       3500.       3500.       3500.    
        3501.       3501.       3501.       3502.       3502.       3502.       3501.       3501.       3501.       3501.    
        3501.       3501.       3503.       3503.       3503.       3505.       3505.       3505.       3505.       3505.    
        3505.       3505.       3505.       3505.       3505.       3505.       3505.       3505.       3506.       3506.    
        3506.       3507.       3507.       3507.       3509.       3509.       3509.       3510.       3510.       3510.    
        3509.       3509.       3509.       3509.       3509.       3509.       3510.       3510.       3510.       3510.    
        3510.       3510.       3511.       3511.       3511.       3513.       3513.       3513.       3513.       3513.    
        3513.       3515.       3515.       3515.       3518.       3518.       3518.       3517.       3517.       3517.    
        3516.       3516.       3516.       3516.       3516.       3516.       3520.       3520.       3520.       3523.    
        3523.       3523.       3523.       3525.       3525.       3525.       3527.       3527.       3527.       3530.    
        3530.       3530.       3531.       3531.       3531.       3531.       3531.       3531.       3532.       3532.    
        3532.       3535.       3535.       3535.       3537.       3537.       3537.       3541.       3541.       3541.    
[...]
     HEAD DEP BOUNDS =    10072917.0000       HEAD DEP BOUNDS =         265.4416
            RECHARGE =    50196952.0000              RECHARGE =        1298.7177

            TOTAL IN =   112774992.0000              TOTAL IN =        2940.5869

          OUT:                                     OUT:
          ----                                     ----
             STORAGE =           0.0000               STORAGE =           0.0000
       CONSTANT HEAD =           0.0000         CONSTANT HEAD =           0.0000
       RIVER LEAKAGE =   112947384.0000         RIVER LEAKAGE =        2947.1821
     HEAD DEP BOUNDS =           0.0000       HEAD DEP BOUNDS =           0.0000
            RECHARGE =           0.0000              RECHARGE =           0.0000

           TOTAL OUT =   112947384.0000             TOTAL OUT =        2947.1821

            IN - OUT =     -172392.0000              IN - OUT =          -6.5952

 PERCENT DISCREPANCY =          -0.15     PERCENT DISCREPANCY =          -0.22






         TIME SUMMARY AT END OF TIME STEP    1 IN STRESS PERIOD    4
                    SECONDS     MINUTES      HOURS       DAYS        YEARS
                    -----------------------------------------------------------
   TIME STEP LENGTH 2.10384E+08 3.50640E+06  58440.      2435.0      6.6667    
 STRESS PERIOD TIME 2.10384E+08 3.50640E+06  58440.      2435.0      6.6667    
         TOTAL TIME 3.30299E+09 5.50498E+07 9.17496E+05  38229.      104.67    
1
 
 SOLVING FOR HEAD 
          0                 1           1            95   85     1      -0.2452355152E-03      25   86    1        -0.1964526018E-02      0.5744541516E-01

    ------------------------------------------------
       NWT REQUIRED            1 OUTER ITERATIONS 
       AND A TOTAL OF          1 INNER ITERATIONS.
    ------------------------------------------------

 OUTPUT CONTROL FOR STRESS PERIOD    4   TIME STEP    2
    SAVE DRAWDOWN FOR ALL LAYERS
    SAVE BUDGET
    PRINT BUDGET
 UBDSV2 SAVING "   CONSTANT HEAD" ON UNIT   9 AT TIME STEP  2, STRESS PERIOD   4
 UBDSV1 SAVING "FLOW RIGHT FACE " ON UNIT   9 AT TIME STEP  2, STRESS PERIOD   4
 UBDSV1 SAVING "FLOW FRONT FACE " ON UNIT   9 AT TIME STEP  2, STRESS PERIOD   4
 UBDSV1 SAVING "FLOW LOWER FACE " ON UNIT   9 AT TIME STEP  2, STRESS PERIOD   4
 UBDSV4 SAVING "   RIVER LEAKAGE" ON UNIT   9 AT TIME STEP  2, STRESS PERIOD   4
 UBDSV4 SAVING " HEAD DEP BOUNDS" ON UNIT   9 AT TIME STEP  2, STRESS PERIOD   4
 UBDSV3 SAVING "        RECHARGE" ON UNIT   9 AT TIME STEP  2, STRESS PERIOD   4

 SAVING SATURATED THICKNESS AND FLOW TERMS ON UNIT  136 FOR MT3DMS
 BY THE LINK-MT3DMS PACKAGE V7 AT TIME STEP    2, STRESS PERIOD    4


 DRAWDOWN WILL BE SAVED ON UNIT   38 AT END OF TIME STEP    2, STRESS PERIOD    4
1
  VOLUMETRIC BUDGET FOR ENTIRE MODEL AT END OF TIME STEP    2, STRESS PERIOD   4
  ------------------------------------------------------------------------------

     CUMULATIVE VOLUMES      L**3       RATES FOR THIS TIME STEP      L**3/T
     ------------------                 ------------------------

           IN:                                      IN:
           ---                                      ---
             STORAGE =           0.0000               STORAGE =           0.0000
       CONSTANT HEAD =           0.0000         CONSTANT HEAD =           0.0000
       RIVER LEAKAGE =    55856760.0000         RIVER LEAKAGE =        1376.4423
     HEAD DEP BOUNDS =    10719280.0000       HEAD DEP BOUNDS =         265.4468
            RECHARGE =    53359328.0000              RECHARGE =        1298.7177

            TOTAL IN =   119935368.0000              TOTAL IN =        2940.6069

          OUT:                                     OUT:
          ----                                     ----
             STORAGE =           0.0000               STORAGE =           0.0000
       CONSTANT HEAD =           0.0000         CONSTANT HEAD =           0.0000
       RIVER LEAKAGE =   120123688.0000         RIVER LEAKAGE =        2947.1462
     HEAD DEP BOUNDS =           0.0000       HEAD DEP BOUNDS =           0.0000
            RECHARGE =           0.0000              RECHARGE =           0.0000

           TOTAL OUT =   120123688.0000             TOTAL OUT =        2947.1462

            IN - OUT =     -188320.0000              IN - OUT =          -6.5393

 PERCENT DISCREPANCY =          -0.16     PERCENT DISCREPANCY =          -0.22






         TIME SUMMARY AT END OF TIME STEP    2 IN STRESS PERIOD    4
                    SECONDS     MINUTES      HOURS       DAYS        YEARS
                    -----------------------------------------------------------
   TIME STEP LENGTH 2.10384E+08 3.50640E+06  58440.      2435.0      6.6667    
 STRESS PERIOD TIME 4.20768E+08 7.01280E+06 1.16880E+05  4870.0      13.333    
         TOTAL TIME 3.51337E+09 5.85562E+07 9.75936E+05  40664.      111.33    
1
 
 SOLVING FOR HEAD 
          0                 1           1           147   79     1      -0.1242540443E-03      28   86    1        -0.2170966007E-02      0.5708235244E-01

    ------------------------------------------------
       NWT REQUIRED            1 OUTER ITERATIONS 
       AND A TOTAL OF          1 INNER ITERATIONS.
    ------------------------------------------------

 OUTPUT CONTROL FOR STRESS PERIOD    4   TIME STEP    3
    SAVE DRAWDOWN FOR ALL LAYERS
    SAVE BUDGET
    PRINT BUDGET
 UBDSV2 SAVING "   CONSTANT HEAD" ON UNIT   9 AT TIME STEP  3, STRESS PERIOD   4
 UBDSV1 SAVING "FLOW RIGHT FACE " ON UNIT   9 AT TIME STEP  3, STRESS PERIOD   4
 UBDSV1 SAVING "FLOW FRONT FACE " ON UNIT   9 AT TIME STEP  3, STRESS PERIOD   4
 UBDSV1 SAVING "FLOW LOWER FACE " ON UNIT   9 AT TIME STEP  3, STRESS PERIOD   4
 UBDSV4 SAVING "   RIVER LEAKAGE" ON UNIT   9 AT TIME STEP  3, STRESS PERIOD   4
 UBDSV4 SAVING " HEAD DEP BOUNDS" ON UNIT   9 AT TIME STEP  3, STRESS PERIOD   4
 UBDSV3 SAVING "        RECHARGE" ON UNIT   9 AT TIME STEP  3, STRESS PERIOD   4

 SAVING SATURATED THICKNESS AND FLOW TERMS ON UNIT  136 FOR MT3DMS
 BY THE LINK-MT3DMS PACKAGE V7 AT TIME STEP    3, STRESS PERIOD    4


 DRAWDOWN WILL BE SAVED ON UNIT   38 AT END OF TIME STEP    3, STRESS PERIOD    4
1
  VOLUMETRIC BUDGET FOR ENTIRE MODEL AT END OF TIME STEP    3, STRESS PERIOD   4
  ------------------------------------------------------------------------------

     CUMULATIVE VOLUMES      L**3       RATES FOR THIS TIME STEP      L**3/T
     ------------------                 ------------------------

           IN:                                      IN:
           ---                                      ---
             STORAGE =           0.0000               STORAGE =           0.0000
       CONSTANT HEAD =           0.0000         CONSTANT HEAD =           0.0000
       RIVER LEAKAGE =    59208416.0000         RIVER LEAKAGE =        1376.4497
     HEAD DEP BOUNDS =    11365650.0000       HEAD DEP BOUNDS =         265.4495
            RECHARGE =    56521704.0000              RECHARGE =        1298.7177

            TOTAL IN =   127095768.0000              TOTAL IN =        2940.6167

          OUT:                                     OUT:
          ----                                     ----
             STORAGE =           0.0000               STORAGE =           0.0000
       CONSTANT HEAD =           0.0000         CONSTANT HEAD =           0.0000
       RIVER LEAKAGE =   127299944.0000         RIVER LEAKAGE =        2947.1277
     HEAD DEP BOUNDS =           0.0000       HEAD DEP BOUNDS =           0.0000
            RECHARGE =           0.0000              RECHARGE =           0.0000

           TOTAL OUT =   127299944.0000             TOTAL OUT =        2947.1277

            IN - OUT =     -204176.0000              IN - OUT =          -6.5110

 PERCENT DISCREPANCY =          -0.16     PERCENT DISCREPANCY =          -0.22






         TIME SUMMARY AT END OF TIME STEP    3 IN STRESS PERIOD    4
                    SECONDS     MINUTES      HOURS       DAYS        YEARS
                    -----------------------------------------------------------
   TIME STEP LENGTH 2.10384E+08 3.50640E+06  58440.      2435.0      6.6667    
 STRESS PERIOD TIME 6.31152E+08 1.05192E+07 1.75320E+05  7305.0      20.000    
         TOTAL TIME 3.72375E+09 6.20626E+07 1.03438E+06  43099.      118.00    
1
 
 SOLVING FOR HEAD 
          0                 1           1            95   85     1      -0.2357630856E-03      25   86    1        -0.1939276000E-02      0.5671852257E-01

    ------------------------------------------------
       NWT REQUIRED            1 OUTER ITERATIONS 
       AND A TOTAL OF          1 INNER ITERATIONS.
    ------------------------------------------------

 OUTPUT CONTROL FOR STRESS PERIOD    4   TIME STEP    4
    SAVE DRAWDOWN FOR ALL LAYERS
    SAVE BUDGET
    PRINT BUDGET
 UBDSV2 SAVING "   CONSTANT HEAD" ON UNIT   9 AT TIME STEP  4, STRESS PERIOD   4
 UBDSV1 SAVING "FLOW RIGHT FACE " ON UNIT   9 AT TIME STEP  4, STRESS PERIOD   4
 UBDSV1 SAVING "FLOW FRONT FACE " ON UNIT   9 AT TIME STEP  4, STRESS PERIOD   4
 UBDSV1 SAVING "FLOW LOWER FACE " ON UNIT   9 AT TIME STEP  4, STRESS PERIOD   4
 UBDSV4 SAVING "   RIVER LEAKAGE" ON UNIT   9 AT TIME STEP  4, STRESS PERIOD   4
 UBDSV4 SAVING " HEAD DEP BOUNDS" ON UNIT   9 AT TIME STEP  4, STRESS PERIOD   4
 UBDSV3 SAVING "        RECHARGE" ON UNIT   9 AT TIME STEP  4, STRESS PERIOD   4

 SAVING SATURATED THICKNESS AND FLOW TERMS ON UNIT  136 FOR MT3DMS
 BY THE LINK-MT3DMS PACKAGE V7 AT TIME STEP    4, STRESS PERIOD    4


 DRAWDOWN WILL BE SAVED ON UNIT   38 AT END OF TIME STEP    4, STRESS PERIOD    4
1
  VOLUMETRIC BUDGET FOR ENTIRE MODEL AT END OF TIME STEP    4, STRESS PERIOD   4
  ------------------------------------------------------------------------------

     CUMULATIVE VOLUMES      L**3       RATES FOR THIS TIME STEP      L**3/T
     ------------------                 ------------------------

           IN:                                      IN:
           ---                                      ---
             STORAGE =           0.0000               STORAGE =           0.0000
       CONSTANT HEAD =           0.0000         CONSTANT HEAD =           0.0000
       RIVER LEAKAGE =    62560104.0000         RIVER LEAKAGE =        1376.4635
     HEAD DEP BOUNDS =    12012032.0000       HEAD DEP BOUNDS =         265.4545
            RECHARGE =    59684080.0000              RECHARGE =        1298.7177

            TOTAL IN =   134256224.0000              TOTAL IN =        2940.6357

          OUT:                                     OUT:
          ----                                     ----
             STORAGE =           0.0000               STORAGE =           0.0000
       CONSTANT HEAD =           0.0000         CONSTANT HEAD =           0.0000
       RIVER LEAKAGE =   134476112.0000         RIVER LEAKAGE =        2947.0935
     HEAD DEP BOUNDS =           0.0000       HEAD DEP BOUNDS =           0.0000
            RECHARGE =           0.0000              RECHARGE =           0.0000

           TOTAL OUT =   134476112.0000             TOTAL OUT =        2947.0935

            IN - OUT =     -219888.0000              IN - OUT =          -6.4578

 PERCENT DISCREPANCY =          -0.16     PERCENT DISCREPANCY =          -0.22






         TIME SUMMARY AT END OF TIME STEP    4 IN STRESS PERIOD    4
                    SECONDS     MINUTES      HOURS       DAYS        YEARS
                    -----------------------------------------------------------
   TIME STEP LENGTH 2.10384E+08 3.50640E+06  58440.      2435.0      6.6667    
 STRESS PERIOD TIME 8.41536E+08 1.40256E+07 2.33760E+05  9740.0      26.667    
         TOTAL TIME 3.93414E+09 6.55690E+07 1.09282E+06  45534.      124.67    
1
 
 SOLVING FOR HEAD 
          0                 1           1           147   79     1      -0.1259010064E-03      28   86    1        -0.2137713833E-02      0.5637028853E-01

    ------------------------------------------------
       NWT REQUIRED            1 OUTER ITERATIONS 
       AND A TOTAL OF          1 INNER ITERATIONS.
    ------------------------------------------------

 OUTPUT CONTROL FOR STRESS PERIOD    4   TIME STEP    5
    SAVE DRAWDOWN FOR ALL LAYERS
    SAVE BUDGET
    PRINT BUDGET
 UBDSV2 SAVING "   CONSTANT HEAD" ON UNIT   9 AT TIME STEP  5, STRESS PERIOD   4
 UBDSV1 SAVING "FLOW RIGHT FACE " ON UNIT   9 AT TIME STEP  5, STRESS PERIOD   4
 UBDSV1 SAVING "FLOW FRONT FACE " ON UNIT   9 AT TIME STEP  5, STRESS PERIOD   4
 UBDSV1 SAVING "FLOW LOWER FACE " ON UNIT   9 AT TIME STEP  5, STRESS PERIOD   4
 UBDSV4 SAVING "   RIVER LEAKAGE" ON UNIT   9 AT TIME STEP  5, STRESS PERIOD   4
 UBDSV4 SAVING " HEAD DEP BOUNDS" ON UNIT   9 AT TIME STEP  5, STRESS PERIOD   4
 UBDSV3 SAVING "        RECHARGE" ON UNIT   9 AT TIME STEP  5, STRESS PERIOD   4

 SAVING SATURATED THICKNESS AND FLOW TERMS ON UNIT  136 FOR MT3DMS
 BY THE LINK-MT3DMS PACKAGE V7 AT TIME STEP    5, STRESS PERIOD    4


 DRAWDOWN WILL BE SAVED ON UNIT   38 AT END OF TIME STEP    5, STRESS PERIOD    4
1
  VOLUMETRIC BUDGET FOR ENTIRE MODEL AT END OF TIME STEP    5, STRESS PERIOD   4
  ------------------------------------------------------------------------------

     CUMULATIVE VOLUMES      L**3       RATES FOR THIS TIME STEP      L**3/T
     ------------------                 ------------------------

           IN:                                      IN:
           ---                                      ---
             STORAGE =           0.0000               STORAGE =           0.0000
       CONSTANT HEAD =           0.0000         CONSTANT HEAD =           0.0000
       RIVER LEAKAGE =    65911812.0000         RIVER LEAKAGE =        1376.4709
     HEAD DEP BOUNDS =    12658420.0000       HEAD DEP BOUNDS =         265.4572
            RECHARGE =    62846456.0000              RECHARGE =        1298.7177

            TOTAL IN =   141416688.0000              TOTAL IN =        2940.6460

          OUT:                                     OUT:
          ----                                     ----
             STORAGE =           0.0000               STORAGE =           0.0000
       CONSTANT HEAD =           0.0000         CONSTANT HEAD =           0.0000
       RIVER LEAKAGE =   141652240.0000         RIVER LEAKAGE =        2947.0752
     HEAD DEP BOUNDS =           0.0000       HEAD DEP BOUNDS =           0.0000
            RECHARGE =           0.0000              RECHARGE =           0.0000

           TOTAL OUT =   141652240.0000             TOTAL OUT =        2947.0752

            IN - OUT =     -235552.0000              IN - OUT =          -6.4292

 PERCENT DISCREPANCY =          -0.17     PERCENT DISCREPANCY =          -0.22






         TIME SUMMARY AT END OF TIME STEP    5 IN STRESS PERIOD    4
                    SECONDS     MINUTES      HOURS       DAYS        YEARS
                    -----------------------------------------------------------
   TIME STEP LENGTH 2.10384E+08 3.50640E+06  58440.      2435.0      6.6667    
 STRESS PERIOD TIME 1.05192E+09 1.75320E+07 2.92200E+05  12175.      33.333    
         TOTAL TIME 4.14452E+09 6.90754E+07 1.15126E+06  47969.      131.33    
1
 
 SOLVING FOR HEAD 
          0                 1           1           147   79     1      -0.2211079732E-03      25   86    1        -0.1917808317E-02      0.5601557280E-01

    ------------------------------------------------
       NWT REQUIRED            1 OUTER ITERATIONS 
       AND A TOTAL OF          1 INNER ITERATIONS.
    ------------------------------------------------

 OUTPUT CONTROL FOR STRESS PERIOD    4   TIME STEP    6
    SAVE HEAD FOR ALL LAYERS
    SAVE DRAWDOWN FOR ALL LAYERS
    SAVE BUDGET
    PRINT BUDGET
 UBDSV2 SAVING "   CONSTANT HEAD" ON UNIT   9 AT TIME STEP  6, STRESS PERIOD   4
 UBDSV1 SAVING "FLOW RIGHT FACE " ON UNIT   9 AT TIME STEP  6, STRESS PERIOD   4
 UBDSV1 SAVING "FLOW FRONT FACE " ON UNIT   9 AT TIME STEP  6, STRESS PERIOD   4
 UBDSV1 SAVING "FLOW LOWER FACE " ON UNIT   9 AT TIME STEP  6, STRESS PERIOD   4
 UBDSV4 SAVING "   RIVER LEAKAGE" ON UNIT   9 AT TIME STEP  6, STRESS PERIOD   4
 UBDSV4 SAVING " HEAD DEP BOUNDS" ON UNIT   9 AT TIME STEP  6, STRESS PERIOD   4
 UBDSV3 SAVING "        RECHARGE" ON UNIT   9 AT TIME STEP  6, STRESS PERIOD   4

 SAVING SATURATED THICKNESS AND FLOW TERMS ON UNIT  136 FOR MT3DMS
 BY THE LINK-MT3DMS PACKAGE V7 AT TIME STEP    6, STRESS PERIOD    4


 HEAD WILL BE SAVED ON UNIT   37 AT END OF TIME STEP    6, STRESS PERIOD    4

 DRAWDOWN WILL BE SAVED ON UNIT   38 AT END OF TIME STEP    6, STRESS PERIOD    4
1
  VOLUMETRIC BUDGET FOR ENTIRE MODEL AT END OF TIME STEP    6, STRESS PERIOD   4
  ------------------------------------------------------------------------------

     CUMULATIVE VOLUMES      L**3       RATES FOR THIS TIME STEP      L**3/T
     ------------------                 ------------------------

           IN:                                      IN:
           ---                                      ---
             STORAGE =           0.0000               STORAGE =           0.0000
       CONSTANT HEAD =           0.0000         CONSTANT HEAD =           0.0000
       RIVER LEAKAGE =    69263552.0000         RIVER LEAKAGE =        1376.4838
     HEAD DEP BOUNDS =    13304820.0000       HEAD DEP BOUNDS =         265.4619
            RECHARGE =    66008832.0000              RECHARGE =        1298.7177

            TOTAL IN =   148577200.0000              TOTAL IN =        2940.6633

          OUT:                                     OUT:
          ----                                     ----
             STORAGE =           0.0000               STORAGE =           0.0000
       CONSTANT HEAD =           0.0000         CONSTANT HEAD =           0.0000
       RIVER LEAKAGE =   148828288.0000         RIVER LEAKAGE =        2947.0432
     HEAD DEP BOUNDS =           0.0000       HEAD DEP BOUNDS =           0.0000
            RECHARGE =           0.0000              RECHARGE =           0.0000

           TOTAL OUT =   148828288.0000             TOTAL OUT =        2947.0432

            IN - OUT =     -251088.0000              IN - OUT =          -6.3799

 PERCENT DISCREPANCY =          -0.17     PERCENT DISCREPANCY =          -0.22






         TIME SUMMARY AT END OF TIME STEP    6 IN STRESS PERIOD    4
                    SECONDS     MINUTES      HOURS       DAYS        YEARS
                    -----------------------------------------------------------
   TIME STEP LENGTH 2.10384E+08 3.50640E+06  58440.      2435.0      6.6667    
 STRESS PERIOD TIME 1.26230E+09 2.10384E+07 3.50640E+05  14610.      40.000    
         TOTAL TIME 4.35491E+09 7.25818E+07 1.20970E+06  50404.      138.00    
1

 HEAD AND DRAWDOWN OBSERVATIONS
 OBSERVATION       OBSERVED           SIMULATED
   NAME              VALUE              VALUE             DIFFERENCE
 --------------------------------------------------------------------
 SM-1            3517.5400391        3515.8967285        1.6433105469    
 SM-2            3505.1398926        3507.0917969       -1.9519042969    
 SM-3            3503.8300781        3505.3344727       -1.5043945312    
 SM-4            3497.3601074        3499.9008789       -2.5407714844    
 SM-5            3494.1499023        3494.9516602      -0.80175781250    
 SM-6            3510.7900391        3511.2067871      -0.41674804688    

 HEAD/DRAWDOWN SUM OF SQUARED DIFFERENCE:    1.60456E+01

 Run end date and time (yyyy/mm/dd hh:mm:ss): 2021/01/29 11:38:14
 Elapsed run time: 11.048 Seconds

